mvpmarch-behavior/feederdata/p1uhs0_1247--p1udt104/feeder_p1udt104-p1uhs0_1247x_SystemY.txt
System Y Matrix (Lower Triangle by Columns)

  Row  Col               G               B

[   1,   1] =    50005.9068 + j -50009.42479
[   2,   1] =  -1.665596444 + j  2.156684114
[   3,   1] =  -1.665596444 + j  2.156684114
[  69,   1] =  -5.906800384 + j  9.424790189
[  70,   1] =   1.665596444 + j -2.156684201
[  71,   1] =   1.665596444 + j -2.156684201
[   2,   2] =    50005.9068 + j -50009.42479
[   3,   2] =  -1.665596444 + j  2.156684114
[  69,   2] =   1.665596444 + j -2.156684201
[  70,   2] =  -5.906800384 + j  9.424790189
[  71,   2] =   1.665596444 + j -2.156684201
[   3,   3] =    50005.9068 + j -50009.42479
[  69,   3] =   1.665596444 + j -2.156684201
[  70,   3] =   1.665596444 + j -2.156684201
[  71,   3] =  -5.906800384 + j  9.424790189
[   4,   4] =   9.234159553 + j -14.71623879
[   5,   4] =  -2.600253404 + j  3.366917215
[   6,   4] =  -2.600253404 + j  3.366917215
[  90,   4] =  -9.221428072 + j  14.71355373
[  91,   4] =   2.600253404 + j -3.366917271
[  92,   4] =   2.600253404 + j -3.366917271
[   5,   5] =   9.234159553 + j -14.71623879
[   6,   5] =  -2.600253404 + j  3.366917215
[  90,   5] =   2.600253404 + j -3.366917271
[  91,   5] =  -9.221428072 + j  14.71355373
[  92,   5] =   2.600253404 + j -3.366917271
[   6,   6] =   9.234159553 + j -14.71623879
[  90,   6] =   2.600253404 + j -3.366917271
[  91,   6] =   2.600253404 + j -3.366917271
[  92,   6] =  -9.221428072 + j  14.71355373
[   7,   7] =   18.37037581 + j -13.45511347
[  34,   7] =  -18.36742828 + j  13.45451167
[   8,   8] =   502.5356092 + j -503.9797397
[   9,   8] = -0.7014434204 + j 0.9082581826
[  10,   8] = -0.7014434204 + j 0.9082581826
[  55,   8] =          -500 + j          500
[  61,   8] =  -2.487569111 + j  3.969122947
[  62,   8] =  0.7014434204 + j-0.9082583887
[  63,   8] =  0.7014434204 + j-0.9082583887
[   9,   9] =   502.5356092 + j -503.9797397
[  10,   9] = -0.7014434204 + j 0.9082581826
[  56,   9] =          -500 + j          500
[  61,   9] =  0.7014434204 + j-0.9082583887
[  62,   9] =  -2.487569111 + j  3.969122947
[  63,   9] =  0.7014434204 + j-0.9082583887
[  10,  10] =   502.5356092 + j -503.9797397
[  57,  10] =          -500 + j          500
[  61,  10] =  0.7014434204 + j-0.9082583887
[  62,  10] =  0.7014434204 + j-0.9082583887
[  63,  10] =  -2.487569111 + j  3.969122947
[  11,  11] =   1007.895403 + j -1012.582151
[  12,  11] =  -2.223147535 + j  2.878624696
[  13,  11] =  -2.223147535 + j  2.878624696
[  43,  11] =          -500 + j          500
[  61,  11] =          -500 + j          500
[  64,  11] =  -7.884075859 + j  12.57969729
[  65,  11] =   2.223147535 + j -2.878624761
[  66,  11] =   2.223147535 + j -2.878624761
[  12,  12] =   1007.895403 + j -1012.582151
[  13,  12] =  -2.223147535 + j  2.878624696
[  44,  12] =          -500 + j          500
[  62,  12] =          -500 + j          500
[  64,  12] =   2.223147535 + j -2.878624761
[  65,  12] =  -7.884075859 + j  12.57969729
[  66,  12] =   2.223147535 + j -2.878624761
[  13,  13] =   1007.895403 + j -1012.582151
[  45,  13] =          -500 + j          500
[  63,  13] =          -500 + j          500
[  64,  13] =   2.223147535 + j -2.878624761
[  65,  13] =   2.223147535 + j -2.878624761
[  66,  13] =  -7.884075859 + j  12.57969729
[  14,  14] =   21.79647281 + j -34.77338122
[  21,  14] =  -21.14128963 + j  33.73268202
[  22,  14] =   5.961409653 + j  -7.71908349
[  23,  14] =   5.961409653 + j  -7.71908349
[  67,  14] =  -6.145204873 + j  7.957068447
[  68,  14] =  -6.145204873 + j  7.957068447
[ 100,  14] = -0.6518035532 + j  1.040006659
[ 101,  14] =  0.1837952207 + j-0.2379857679
[ 102,  14] =  0.1837952207 + j-0.2379857679
[  15,  15] =   500.0322994 + j -500.0071914
[  16,  15] =             0 + j-6.283185307E-12
[  17,  15] =             0 + j-6.283185307E-12
[  75,  15] =          -500 + j          500
[  16,  16] =   500.0322994 + j -500.0071914
[  17,  16] =             0 + j-6.283185307E-12
[  76,  16] =          -500 + j          500
[  17,  17] =   500.0322994 + j -500.0071914
[  77,  17] =          -500 + j          500
[  18,  18] =   1000.020741 + j -1000.004568
[  19,  18] =             0 + j-1.256637061E-11
[  20,  18] =             0 + j-1.256637061E-11
[  78,  18] =          -500 + j          500
[  87,  18] =          -500 + j          500
[  19,  19] =   501000.0207 + j -501000.0046
[  20,  19] =             0 + j-1.256637061E-11
[  79,  19] =          -500 + j          500
[  88,  19] =          -500 + j          500
[  93,  19] =       -500000 + j       500000
[  20,  20] =   1000.020741 + j -1000.004568
[  80,  20] =          -500 + j          500
[  89,  20] =          -500 + j          500
[  21,  21] =   500021.1882 + j -500033.7432
[  22,  21] =  -5.961409653 + j  7.719083466
[  23,  21] =  -5.961409653 + j  7.719083466
[  64,  21] =       -500000 + j       500000
[  67,  21] =   5.961409653 + j  -7.71908349
[  68,  21] =   5.961409653 + j  -7.71908349
[  22,  22] =   500021.1882 + j -500033.7432
[  23,  22] =  -5.961409653 + j  7.719083466
[  65,  22] =       -500000 + j       500000
[  67,  22] =  -21.14128963 + j  33.73268202
[  68,  22] =   5.961409653 + j  -7.71908349
[  23,  23] =   500021.1882 + j -500033.7432
[  66,  23] =       -500000 + j       500000
[  67,  23] =   5.961409653 + j  -7.71908349
[  68,  23] =  -21.14128963 + j  33.73268202
[  24,  24] =   507.1118104 + j  -511.334088
[  25,  24] =  -2.002651761 + j  2.593117503
[  26,  24] =  -2.002651761 + j  2.593117503
[  49,  24] =          -500 + j          500
[  52,  24] =  -7.102119024 + j  11.33202027
[  53,  24] =   2.002651761 + j -2.593117575
[  54,  24] =   2.002651761 + j -2.593117575
[  25,  25] =   507.1118104 + j  -511.334088
[  26,  25] =  -2.002651761 + j  2.593117503
[  50,  25] =          -500 + j          500
[  52,  25] =   2.002651761 + j -2.593117575
[  53,  25] =  -7.102119024 + j  11.33202027
[  54,  25] =   2.002651761 + j -2.593117575
[  26,  26] =   507.1118104 + j  -511.334088
[  51,  26] =          -500 + j          500
[  52,  26] =   2.002651761 + j -2.593117575
[  53,  26] =   2.002651761 + j -2.593117575
[  54,  26] =  -7.102119024 + j  11.33202027
[  27,  27] =   21.92314853 + j -34.96496449
[  28,  27] =  -6.178762112 + j  8.000520556
[  29,  27] =  -6.178762112 + j  8.000520556
[  49,  27] =  -21.91209915 + j  34.96257257
[  50,  27] =   6.178762112 + j -8.000520579
[  51,  27] =   6.178762112 + j -8.000520579
[  28,  28] =   21.92314853 + j -34.96496449
[  29,  28] =  -6.178762112 + j  8.000520556
[  49,  28] =   6.178762112 + j -8.000520579
[  50,  28] =  -21.91209915 + j  34.96257257
[  51,  28] =   6.178762112 + j -8.000520579
[  29,  29] =   21.92314853 + j -34.96496449
[  49,  29] =   6.178762112 + j -8.000520579
[  50,  29] =   6.178762112 + j -8.000520579
[  51,  29] =  -21.91209915 + j  34.96257257
[  30,  30] =   500.0463117 + j -500.0103704
[  31,  30] =             0 + j-6.283185307E-12
[  32,  30] =             0 + j-6.283185307E-12
[  81,  30] =          -500 + j          500
[  31,  31] =   500.0463117 + j -500.0103704
[  32,  31] =             0 + j-6.283185307E-12
[  82,  31] =          -500 + j          500
[  32,  32] =   500.0463117 + j -500.0103704
[  83,  32] =          -500 + j          500
[  33,  33] =   500000.0014 + j -500000.0003
[  36,  33] =       -500000 + j       500000
[  34,  34] =   500018.3674 + j -500013.4545
[  67,  34] =       -500000 + j       500000
[  35,  35] =   500009.1198 + j -500009.4875
[  36,  35] =  -9.119813512 + j  9.487507857
[  93,  35] =       -500000 + j       500000
[  36,  36] =   500009.1198 + j -500009.4875
[  37,  37] =   505.0313062 + j -504.9554783
[  38,  37] =  -2.360457112 + j  1.701759271
[  39,  37] =  -2.360457112 + j  1.701759271
[  40,  37] =  -5.031306175 + j  4.955484596
[  41,  37] =   2.360457112 + j -1.701762353
[  42,  37] =   2.360457112 + j -1.701762353
[  94,  37] =          -500 + j          500
[  38,  38] =   505.0313062 + j -504.9554783
[  39,  38] =  -2.360457112 + j  1.701759271
[  40,  38] =   2.360457112 + j -1.701762353
[  41,  38] =  -5.031306175 + j  4.955484596
[  42,  38] =   2.360457112 + j -1.701762353
[  95,  38] =          -500 + j          500
[  39,  39] =   505.0313062 + j -504.9554783
[  40,  39] =   2.360457112 + j -1.701762353
[  41,  39] =   2.360457112 + j -1.701762353
[  42,  39] =  -5.031306175 + j  4.955484596
[  96,  39] =          -500 + j          500
[  40,  40] =   505.0313062 + j -504.9554783
[  41,  40] =  -2.360457112 + j  1.701759271
[  42,  40] =  -2.360457112 + j  1.701759271
[  97,  40] =          -500 + j          500
[  41,  41] =   505.0313062 + j -504.9554783
[  42,  41] =  -2.360457112 + j  1.701759271
[  98,  41] =          -500 + j          500
[  42,  42] =   505.0313062 + j -504.9554783
[  99,  42] =          -500 + j          500
[  43,  43] =   507.3786132 + j -507.2674135
[  44,  43] =  -3.461705459 + j  2.495700954
[  45,  43] =  -3.461705459 + j  2.495700954
[  46,  43] =  -7.378613219 + j  7.267417819
[  47,  43] =   3.461705459 + j -2.495703055
[  48,  43] =   3.461705459 + j -2.495703055
[  44,  44] =   507.3786132 + j -507.2674135
[  45,  44] =  -3.461705459 + j  2.495700954
[  46,  44] =   3.461705459 + j -2.495703055
[  47,  44] =  -7.378613219 + j  7.267417819
[  48,  44] =   3.461705459 + j -2.495703055
[  45,  45] =   507.3786132 + j -507.2674135
[  46,  45] =   3.461705459 + j -2.495703055
[  47,  45] =   3.461705459 + j -2.495703055
[  48,  45] =  -7.378613219 + j  7.267417819
[  46,  46] =   507.3786132 + j -507.2674135
[  47,  46] =  -3.461705459 + j  2.495700954
[  48,  46] =  -3.461705459 + j  2.495700954
[  94,  46] =          -500 + j          500
[  47,  47] =   507.3786132 + j -507.2674135
[  48,  47] =  -3.461705459 + j  2.495700954
[  95,  47] =          -500 + j          500
[  48,  48] =   507.3786132 + j -507.2674135
[  96,  48] =          -500 + j          500
[  49,  49] =   521.9120991 + j -534.9625725
[  50,  49] =  -6.178762112 + j  8.000520556
[  51,  49] =  -6.178762112 + j  8.000520556
[  50,  50] =   521.9120991 + j -534.9625725
[  51,  50] =  -6.178762112 + j  8.000520556
[  51,  51] =   521.9120991 + j -534.9625725
[  52,  52] =    507.102119 + j -511.3320201
[  53,  52] =  -2.002651761 + j  2.593117503
[  54,  52] =  -2.002651761 + j  2.593117503
[  58,  52] =          -500 + j          500
[  53,  53] =    507.102119 + j -511.3320201
[  54,  53] =  -2.002651761 + j  2.593117503
[  59,  53] =          -500 + j          500
[  54,  54] =    507.102119 + j -511.3320201
[  60,  54] =          -500 + j          500
[  55,  55] =   506.2127527 + j -509.9129623
[  56,  55] =  -1.751868718 + j  2.268393081
[  57,  55] =  -1.751868718 + j  2.268393081
[  58,  55] =  -6.212752708 + j  9.912962512
[  59,  55] =   1.751868718 + j -2.268393163
[  60,  55] =   1.751868718 + j -2.268393163
[  56,  56] =   506.2127527 + j -509.9129623
[  57,  56] =  -1.751868718 + j  2.268393081
[  58,  56] =   1.751868718 + j -2.268393163
[  59,  56] =  -6.212752708 + j  9.912962512
[  60,  56] =   1.751868718 + j -2.268393163
[  57,  57] =   506.2127527 + j -509.9129623
[  58,  57] =   1.751868718 + j -2.268393163
[  59,  57] =   1.751868718 + j -2.268393163
[  60,  57] =  -6.212752708 + j  9.912962512
[  58,  58] =   1006.212753 + j -1009.912962
[  59,  58] =  -1.751868718 + j  2.268393081
[  60,  58] =  -1.751868718 + j  2.268393081
[  90,  58] =          -500 + j          500
[  59,  59] =   1006.212753 + j -1009.912962
[  60,  59] =  -1.751868718 + j  2.268393081
[  91,  59] =          -500 + j          500
[  60,  60] =   1006.212753 + j -1009.912962
[  92,  60] =          -500 + j          500
[  61,  61] =   502.4875691 + j -503.9691225
[  62,  61] = -0.7014434204 + j 0.9082581826
[  63,  61] = -0.7014434204 + j 0.9082581826
[  62,  62] =   502.4875691 + j -503.9691225
[  63,  62] = -0.7014434204 + j 0.9082581826
[  63,  63] =   502.4875691 + j -503.9691225
[  64,  64] =   500007.8841 + j -500012.5797
[  65,  64] =  -2.223147535 + j  2.878624696
[  66,  64] =  -2.223147535 + j  2.878624696
[  65,  65] =   500007.8841 + j -500012.5797
[  66,  65] =  -2.223147535 + j  2.878624696
[  66,  66] =   500007.8841 + j -500012.5797
[  67,  67] =   500021.7931 + j -500034.7727
[  68,  67] =  -6.145204873 + j  7.957068447
[ 100,  67] =  0.1837952207 + j-0.2379857679
[ 101,  67] = -0.6518035532 + j  1.040006659
[ 102,  67] =  0.1837952207 + j-0.2379857679
[  68,  68] =   21.79309318 + j -34.77268678
[ 100,  68] =  0.1837952207 + j-0.2379857679
[ 101,  68] =  0.1837952207 + j-0.2379857679
[ 102,  68] = -0.6518035532 + j  1.040006659
[  69,  69] =   505.9068004 + j   -509.42479
[  70,  69] =  -1.665596444 + j  2.156684114
[  71,  69] =  -1.665596444 + j  2.156684114
[ 100,  69] =          -500 + j          500
[  70,  70] =   505.9068004 + j   -509.42479
[  71,  70] =  -1.665596444 + j  2.156684114
[ 101,  70] =          -500 + j          500
[  71,  71] =   505.9068004 + j   -509.42479
[ 102,  71] =          -500 + j          500
[  72,  72] =    517.403845 + j  -517.141568
[  73,  72] =  -8.165082452 + j  5.886583472
[  74,  72] =  -8.165082452 + j  5.886583472
[  75,  72] =  -17.40384502 + j  17.14156979
[  76,  72] =   8.165082452 + j -5.886584363
[  77,  72] =   8.165082452 + j -5.886584363
[  97,  72] =          -500 + j          500
[  73,  73] =    517.403845 + j  -517.141568
[  74,  73] =  -8.165082452 + j  5.886583472
[  75,  73] =   8.165082452 + j -5.886584363
[  76,  73] =  -17.40384502 + j  17.14156979
[  77,  73] =   8.165082452 + j -5.886584363
[  98,  73] =          -500 + j          500
[  74,  74] =    517.403845 + j  -517.141568
[  75,  74] =   8.165082452 + j -5.886584363
[  76,  74] =   8.165082452 + j -5.886584363
[  77,  74] =  -17.40384502 + j  17.14156979
[  99,  74] =          -500 + j          500
[  75,  75] =    517.403845 + j  -517.141568
[  76,  75] =  -8.165082452 + j  5.886583472
[  77,  75] =  -8.165082452 + j  5.886583472
[  76,  76] =    517.403845 + j  -517.141568
[  77,  76] =  -8.165082452 + j  5.886583472
[  77,  77] =    517.403845 + j  -517.141568
[  78,  78] =   521.2330521 + j -520.9130694
[  79,  78] =  -9.961570045 + j  7.181754359
[  80,  78] =  -9.961570045 + j  7.181754359
[  81,  78] =  -21.23305211 + j  20.91307088
[  82,  78] =   9.961570045 + j -7.181755089
[  83,  78] =   9.961570045 + j -7.181755089
[  79,  79] =   521.2330521 + j -520.9130694
[  80,  79] =  -9.961570045 + j  7.181754359
[  81,  79] =   9.961570045 + j -7.181755089
[  82,  79] =  -21.23305211 + j  20.91307088
[  83,  79] =   9.961570045 + j -7.181755089
[  80,  80] =   521.2330521 + j -520.9130694
[  81,  80] =   9.961570045 + j -7.181755089
[  82,  80] =   9.961570045 + j -7.181755089
[  83,  80] =  -21.23305211 + j  20.91307088
[  81,  81] =   521.2330521 + j -520.9130694
[  82,  81] =  -9.961570045 + j  7.181754359
[  83,  81] =  -9.961570045 + j  7.181754359
[  82,  82] =   521.2330521 + j -520.9130694
[  83,  82] =  -9.961570045 + j  7.181754359
[  83,  83] =   521.2330521 + j -520.9130694
[  84,  84] =   516.1752573 + j -515.9314948
[  85,  84] =  -7.588685668 + j  5.471032389
[  86,  84] =  -7.588685668 + j  5.471032389
[  87,  84] =  -16.17525727 + j   15.9314968
[  88,  84] =   7.588685668 + j -5.471033348
[  89,  84] =   7.588685668 + j -5.471033348
[  97,  84] =          -500 + j          500
[  85,  85] =   516.1752573 + j -515.9314948
[  86,  85] =  -7.588685668 + j  5.471032389
[  87,  85] =   7.588685668 + j -5.471033348
[  88,  85] =  -16.17525727 + j   15.9314968
[  89,  85] =   7.588685668 + j -5.471033348
[  98,  85] =          -500 + j          500
[  86,  86] =   516.1752573 + j -515.9314948
[  87,  86] =   7.588685668 + j -5.471033348
[  88,  86] =   7.588685668 + j -5.471033348
[  89,  86] =  -16.17525727 + j   15.9314968
[  99,  86] =          -500 + j          500
[  87,  87] =   516.1752573 + j -515.9314948
[  88,  87] =  -7.588685668 + j  5.471032389
[  89,  87] =  -7.588685668 + j  5.471032389
[  88,  88] =   516.1752573 + j -515.9314948
[  89,  88] =  -7.588685668 + j  5.471032389
[  89,  89] =   516.1752573 + j -515.9314948
[  90,  90] =   509.2214281 + j -514.7135536
[  91,  90] =  -2.600253404 + j  3.366917215
[  92,  90] =  -2.600253404 + j  3.366917215
[  91,  91] =   509.2214281 + j -514.7135536
[  92,  91] =  -2.600253404 + j  3.366917215
[  92,  92] =   509.2214281 + j -514.7135536
[  93,  93] =       1000000 + j     -1000000
[  94,  94] =          1000 + j        -1000
[  95,  94] =             0 + j-1.256637061E-11
[  96,  94] =             0 + j-1.256637061E-11
[  95,  95] =          1000 + j        -1000
[  96,  95] =             0 + j-1.256637061E-11
[  96,  96] =          1000 + j        -1000
[  97,  97] =          1500 + j        -1500
[  98,  97] =             0 + j-1.884955592E-11
[  99,  97] =             0 + j-1.884955592E-11
[  98,  98] =          1500 + j        -1500
[  99,  98] =             0 + j-1.884955592E-11
[  99,  99] =          1500 + j        -1500
[ 100, 100] =   500.6518036 + j -501.0400048
[ 101, 100] = -0.1837952207 + j 0.2379849812
[ 102, 100] = -0.1837952207 + j 0.2379849812
[ 101, 101] =   500.6518036 + j -501.0400048
[ 102, 101] = -0.1837952207 + j 0.2379849812
[ 102, 102] =   500.6518036 + j -501.0400048
